*INCLUDE,INPUT=nodes.inp
*ELEMENT,TYPE=S4
11,101,102,103,104
*MATERIAL,NAME=MAT_1
*ELASTIC
2E+06,0.3
*INCLUDE,INPUT=elements.inp
*ELSET,ELSET=_P_1001_M_MAT_1
11
*SHELL SECTION,ELSET=_P_1001_M_MAT_1,MATERIAL=MAT_1
0.05
*STEP
*STATIC
*BOUNDARY
101,1,3
102,2,3
103,3,3
104,1
104,3
*CLOAD
102,1,2.000E+02
103,1,2.000E+02
*END STEP
